! B3LYP 6-31G* TIGHTSCF Grid3 FinalGrid5 Freq 
!NormalPrint 
%output 
Print[P_Basis] 2 
Print[P_MOS] 1 
end 
*xyzfile 0 1 /Users/lailaal-madhagi/Desktop/Testing_XAS_Analysis_code/BenzylCarbamate//Results_dir_BenzylCarbamate_geom_element_O_2019-11-07_18-31-39//GTE1_BenzylCarbamate_geom_2019-11-07_18-31-52//opt.xyz 