! B3LYP 6-31G* TIGHTSCF Grid3 FinalGrid5 Freq 
!NormalPrint 
%output 
Print[P_Basis] 2 
Print[P_MOS] 1 
end 
*xyzfile 0 1 /Users/lailaal-madhagi/Desktop/Testing_XAS_Analysis_code/1-3-5-2-4_Benzotrithiadiazepine//Results_dir_Benzotrithiadiazepine_geom_element_C_2019-11-10_22-29-08//GTE1_Benzotrithiadiazepine_geom_2019-11-10_22-29-37//opt.xyz 