15
	Energy:      11.3251192
C         -2.98303        0.54262        0.14139
O         -1.79972       -0.22413        0.08582
C         -0.68776        0.61225        0.32087
C          0.58159       -0.22379        0.25926
H         -0.74373        1.07122        1.33443
H         -0.61304        1.40202       -0.46128
H          0.55058       -1.02046        1.03269
H          1.46661        0.42156        0.44257
H          0.67981       -0.69344       -0.74255
C         -4.17464       -0.36790       -0.11362
H         -4.08728       -0.83728       -1.11656
H         -5.11465        0.22208       -0.07299
H         -4.21646       -1.16536        0.65849
H         -2.98257        1.33060       -0.64612
H         -3.11321        0.99875        1.14940
