12
	Energy:      10.5737349
C         -2.52220        1.14420        0.01508
C         -1.12933        1.27510        0.02614
C         -3.10507       -0.12738       -0.01419
C         -2.29499       -1.26797       -0.03240
C         -0.31940        0.13458        0.00793
C         -0.90213       -1.13690       -0.02134
H         -3.14869        2.02670        0.02917
H         -0.67815        2.25864        0.04878
H         -4.18265       -0.22872       -0.02275
H         -2.74568       -2.25177       -0.05505
H         -0.27522       -2.01906       -0.03542
H          0.75811        0.23591        0.01649
