#This is C K-edge calculation 
#This is a serial job 

 ! B3LYP RIJCOSX D3 ma-def2-TZVP def2/J TIGHTSCF Grid3 FinalGrid5 
!NormalPrint 
%output 
Print[P_Basis] 2 
Print[P_MOS] 1 
end 

%tddft 
orbwin[0]=8,19,-1,-1 
nroots=50 
maxdim=500 
end 
*xyzfile 0 1 /nobackup/fy11lham/Imidazole/Solid//IMAZOL13_4Mol.xyz 