#This is N K-edge calculation 
! B3LYP 6-31G* TIGHTSCF Grid3 FinalGrid5 
!NormalPrint 
%output 
Print[P_Basis] 2 
Print[P_MOS] 1 
end 

%tddft 
orbwin[0]=2,3,-1,-1 
nroots=20 
maxdim=200 
end 
*xyzfile 0 1 /Users/lailaal-madhagi/Desktop/Testing_XAS_Analysis_code/OrthoNitroAniline//Results_dir_OrthoNitroAniline_geom_element_N_2019-11-13_21-09-48//GTE1_OrthoNitroAniline_geom_2019-11-13_21-10-04//opt.xyz 