#This is N K-edge calculation 
! B3LYP 6-31G* TIGHTSCF Grid3 FinalGrid5 
!NormalPrint 
%output 
Print[P_Basis] 2 
Print[P_MOS] 1 
end 

%tddft 
orbwin[0]=1,2,-1,-1 
nroots=20 
maxdim=200 
end 
*xyzfile 0 1 /Users/lailaal-madhagi/Desktop/Testing_XAS_Analysis_code/2-1-3_Benzotrithiadizole//Results_dir_Benzotrithiadizole_geom_element_N_2019-11-14_07-17-39//GTE1_Benzotrithiadizole_geom_2019-11-14_07-17-55//opt.xyz 