14
	Energy:      12.5764761
C         -1.66428        1.10622        0.00002
C         -0.27418        1.24770        0.00076
C         -2.23675       -0.16843       -0.00010
C         -1.42052       -1.30420        0.00052
C         -0.01987       -1.17036        0.00127
C          0.54617        0.11497        0.00138
C          0.86265       -2.35570        0.00194
O          0.40084       -3.48619        0.00186
H          1.94082       -2.22878        0.00250
H         -2.29761        1.98393       -0.00047
H         -3.31370       -0.27673       -0.00067
H          0.16823        2.23554        0.00084
H          1.62195        0.24192        0.00195
H         -1.88336       -2.28320        0.00042
