#This is O K-edge calculation 
! B3LYP 6-31G* TIGHTSCF Grid3 FinalGrid5 
!NormalPrint 
%output 
Print[P_Basis] 2 
Print[P_MOS] 1 
end 

%tddft 
orbwin[0]=0,1,-1,-1 
nroots=20 
maxdim=200 
end 
*xyzfile 0 1 /Users/lailaal-madhagi/Desktop/Testing_XAS_Analysis_code/PhenylAlanine//Results_dir_PhenylAlanine_geom_element_O_2019-11-18_00-35-02//GTE1_PhenylAlanine_geom_2019-11-18_00-35-14//opt.xyz 