11
	Energy:      37.4653618
C         -4.67848        0.89209       -0.02334
C         -6.05676        0.84466       -0.08955
N         -6.42904       -0.44261       -0.15286
C         -5.28477       -1.15224       -0.12380
N         -4.19193       -0.36349       -0.04455
H         -7.40119       -0.81919       -0.21225
C         -3.84357        2.06127        0.05612
C         -6.98255        1.94764       -0.09355
N         -7.73972        2.82291       -0.09778
N         -3.15894        2.99220        0.12033
H         -5.24445       -2.23229       -0.15994
