! B3LYP 6-31G* TIGHTSCF Grid3 FinalGrid5 Freq 
!NormalPrint 
%output 
Print[P_Basis] 2 
Print[P_MOS] 1 
end 
*xyzfile 0 1 /Users/lailaal-madhagi/Desktop/Testing_XAS_Analysis_code/Nitrobenzene//Results_dir_Nitrobenzene_geom_element_O_2019-11-11_23-02-32//GTE1_Nitrobenzene_geom_2019-11-11_23-02-45//opt.xyz 