! B3LYP 6-31G* TIGHTSCF Grid3 FinalGrid5 Freq 
!NormalPrint 
%output 
Print[P_Basis] 2 
Print[P_MOS] 1 
end 
*xyzfile 0 1 /Users/lailaal-madhagi/Desktop/Testing_XAS_Analysis_code/PhenylEther//Results_dir_PhenylEther_geom_element_C_2019-11-18_18-47-34//GTE1_PhenylEther_geom_2019-11-18_18-48-25//opt.xyz 