23
	Energy:      36.1930611
C         -2.58005        3.24372       -0.29438
C         -1.42647        2.68155        0.29138
C         -3.72511        2.46384       -0.48604
C         -3.73076        1.12025       -0.10428
C         -2.58854        0.55194        0.46401
C         -1.44155        1.32812        0.65619
O         -0.27944        3.38475        0.48904
H         -2.60017        4.27481       -0.61802
H         -4.60748        2.90071       -0.93569
H         -4.61763        0.51829       -0.25455
H         -0.56075        0.87677        1.09558
H         -2.59080       -0.49077        0.75429
C         -0.10731        4.72406        0.64982
C         -1.11542        5.57237        1.15377
C         -0.87207        6.94060        1.31132
C          0.37446        7.47453        0.97655
C          1.38271        6.63968        0.48965
C          1.14354        5.27116        0.33181
H         -2.08348        5.18605        1.44000
H         -1.64954        7.58677        1.69816
H          0.56096        8.53348        1.10033
H          1.93307        4.63263       -0.04437
H          2.35064        7.05231        0.23593
