! B3LYP 6-31G* TIGHTSCF Grid3 FinalGrid5 Freq 
!NormalPrint 
%output 
Print[P_Basis] 2 
Print[P_MOS] 1 
end 
*xyzfile 0 1 /Users/lailaal-madhagi/Desktop/Testing_XAS_Analysis_code/MetaNitroAniline//Results_dir_MetaNitroAniline_geom_element_C_2019-11-11_18-58-13//GTE1_MetaNitroAniline_geom_2019-11-11_18-58-35//opt.xyz 