10
	Energy:      32.6564820
C         -2.55208        0.89398       -0.00000
C         -1.18476        1.03366        0.00000
C         -2.81235       -0.46039       -0.00000
N         -1.65058       -1.14595       -0.00000
C         -0.65571       -0.23807       -0.00000
H         -3.79810       -0.90891       -0.00000
H         -3.26755        1.70308        0.00000
H         -0.64287        1.96685        0.00000
H          0.39995       -0.47613       -0.00000
H         -1.53705       -2.18449       -0.00000
