17
	Energy:      18.7271638
C         -1.71533        1.16616       -0.01504
C         -0.42009        1.71762       -0.00340
C         -1.90665       -0.21815       -0.00868
C         -0.80690       -1.07565        0.00942
C          0.48531       -0.54955        0.02118
C          0.68436        0.83531        0.01491
C         -0.31770        3.23439       -0.01161
C          1.05768        3.84983        0.00066
H         -0.85934        3.61573        0.88114
H         -0.83828        3.60455       -0.92143
O          1.16330        5.06569       -0.00564
H          1.96681        3.26875        0.01492
H         -2.58387        1.81378       -0.02916
H         -2.90939       -0.62561       -0.01781
H         -0.95569       -2.14773        0.01434
H          1.70376        1.18112        0.02461
H          1.33732       -1.21725        0.03522
