! B3LYP 6-31G* TIGHTSCF Grid3 FinalGrid5 Freq 
!NormalPrint 
%output 
Print[P_Basis] 2 
Print[P_MOS] 1 
end 
*xyzfile 0 1 /Users/lailaal-madhagi/Desktop/Testing_XAS_Analysis_code/1-4_Benzoquinone//Results_dir_Benzoquinone_geom_element_O_2019-11-13_07-56-29//GTE1_Benzoquinone_geom_2019-11-13_07-56-47//opt.xyz 