14
	Energy:      11.7027122
C         -2.56704        1.01026        0.05493
C         -1.16961        1.04496        0.00591
C         -3.23884       -0.21525        0.02247
C         -0.43648       -0.14923       -0.07601
C         -2.51408       -1.40786       -0.05907
C         -1.11657       -1.37671       -0.10827
N          0.97878       -0.11589       -0.12575
H          1.48514        0.78139       -0.10247
H          1.52390       -0.98840       -0.18597
H         -3.12899        1.93316        0.11807
H         -0.65953        1.99976        0.03169
H         -3.03504       -2.35627       -0.08416
H         -4.32022       -0.24073        0.06047
H         -0.56522       -2.30651       -0.17134
