7
	Energy:       0.1936087
C         -3.77325       -0.09353        0.00344
C         -2.30714        0.18939        0.00081
H         -4.26227        0.46810        0.82676
H         -3.94660       -1.17980        0.15246
H         -4.21660        0.21479       -0.96652
O         -1.90293        1.33082       -0.15013
H         -1.59596       -0.61948        0.13318
