13
	Energy:       8.0626372
C         -3.74683        1.09373       -0.06262
C         -2.43343        0.33092       -0.30287
H         -4.61246        0.46512       -0.36136
H         -3.76751        2.02394       -0.66938
H         -3.85462        1.35994        1.01096
C         -1.21315        1.14812        0.05147
N         -2.41917       -0.91567        0.46282
H         -2.37049        0.08422       -1.38553
O          0.01251        0.61437       -0.13692
O         -1.31840        2.27976        0.50331
H          0.81692        1.10574        0.08176
H         -3.21737       -1.52210        0.16449
H         -2.51598       -0.71140        1.48477
