14
	Energy:      15.0431553
C         -3.44272        2.05251       -0.03775
C         -2.04708        2.08261       -0.06168
C         -4.11267        0.83177        0.06347
C         -3.38911       -0.36225        0.14106
C         -1.97920       -0.34870        0.11814
C         -1.31740        0.89229        0.01554
N         -1.23646       -1.56732        0.19726
O         -1.80098       -2.61627        0.28408
O         -0.04235       -1.55132        0.17751
H         -3.93240       -1.29536        0.21891
H         -4.00517        2.97532       -0.09767
H         -5.19472        0.81002        0.08190
H         -0.23624        0.94290       -0.00502
H         -1.52908        3.02978       -0.14019
