15
	Energy:      37.3606855
C         -0.55759        0.90220       -0.02649
C         -0.53475       -0.51838       -0.13581
C          0.66981        1.58845        0.07438
C          0.71419       -1.17240       -0.13807
C          1.88752        0.91463        0.06937
C          1.90973       -0.46718       -0.03696
S         -1.90733        1.96341        0.00345
N         -3.54797        1.62264       -0.08662
S         -4.31070        0.14292       -0.23098
N         -3.50072       -1.31634       -0.31277
S         -1.84981       -1.61427       -0.27185
H          0.69126        2.66929        0.15905
H          2.81493        1.46736        0.14825
H          2.85453       -0.99555       -0.04127
H          0.77038       -2.25224       -0.21966
