#This is O K-edge calculation 
! B3LYP 6-31G* TIGHTSCF Grid3 FinalGrid5 
!NormalPrint 
%output 
Print[P_Basis] 2 
Print[P_MOS] 1 
end 

%tddft 
orbwin[0]=0,2,-1,-1 
nroots=20 
maxdim=200 
end 
*xyzfile 0 1 /Users/lailaal-madhagi/Desktop/Testing_XAS_Analysis_code/DimethylCarbonate//Results_dir_DimethylCarbonate_geom_element_O_2019-11-10_19-14-55//GTE1_DimethylCarbonate_geom_2019-11-10_19-15-10//opt.xyz 