16
	Energy:      16.2185517
C         -0.49639        1.06833       -0.00402
C         -1.71065        0.37739       -0.00898
C          0.72591        0.36963       -0.06176
C         -1.72550       -1.01687       -0.07139
C         -0.52245       -1.73223       -0.12946
C          0.69751       -1.03879       -0.12452
N         -0.53820       -3.14754       -0.19278
N          1.96938        1.07492       -0.05679
O          1.98890        2.26796       -0.00348
H          0.34147       -3.68269       -0.23577
H         -1.42983       -3.66433       -0.19683
O          3.00380        0.47985       -0.10587
H         -0.51402        2.14963        0.04500
H         -2.64328        0.92502        0.03572
H         -2.67396       -1.53935       -0.07448
H          1.62233       -1.60046       -0.16969
