17
	Energy:      11.4423109
C          3.69605        1.88770       -0.24840
C          2.29828        2.07366        0.34937
C          1.34501        1.03169       -0.24332
H          1.92485        3.09800        0.13554
H          2.34803        1.94355        1.45329
C          1.89863       -0.37661        0.00846
H          1.25073        1.19627       -1.33944
H          0.33820        1.13393        0.21534
N          3.23715       -0.51054       -0.58619
H          1.21478       -1.12174       -0.45193
H          1.94234       -0.57974        1.10272
C          4.17848        0.45347        0.00353
H          5.17956        0.32182       -0.46049
H          4.27978        0.27131        1.09767
H          4.40318        2.61397        0.20656
H          3.65826        2.07285       -1.34464
H          3.58987       -1.47818       -0.40002
