12
	Energy:       9.6544853
N         -3.46859        0.01103       -0.31706
C         -2.32896        0.72390       -0.15024
N         -1.12451        0.07916       -0.08343
C          0.08275        0.70022        0.08280
N          1.21916       -0.03500        0.13590
O         -2.39968        1.94215       -0.06171
O          0.15889        1.91703        0.18554
H         -1.12681       -0.94965       -0.16424
H         -3.44557       -1.01633       -0.39528
H         -4.38105        0.48813       -0.36856
H          1.19156       -1.06185        0.05277
H          2.13369        0.42417        0.26094
