16
	Energy:      16.1873285
C         -3.03189        1.05323       -0.05214
C         -1.93474        1.92224        0.00668
C         -2.83618       -0.33085       -0.07303
C         -1.53589       -0.87257       -0.03536
C         -0.43884        0.00981        0.02374
C         -0.63810        1.39339        0.04448
N         -2.13486        3.32450        0.02777
H         -4.03990        1.44785       -0.08186
H         -3.70327       -0.97740       -0.11870
H          0.57465       -0.36950        0.05398
H          0.21944        2.05311        0.09007
H         -3.08573        3.72094        0.00023
H         -1.33269        3.97005        0.07099
N         -1.33397       -2.28748       -0.05665
O         -2.26668       -3.03185       -0.10677
O         -0.23011       -2.74245       -0.02457
