#This is C K-edge calculation 
! B3LYP 6-31G* TIGHTSCF Grid3 FinalGrid5 
!NormalPrint 
%output 
Print[P_Basis] 2 
Print[P_MOS] 1 
end 

%tddft 
orbwin[0]=0,7,-1,-1 
nroots=20 
maxdim=200 
end 
*xyzfile 0 1 /Users/lailaal-madhagi/Desktop/Testing_XAS_Analysis_code/Phenylacetylene//Results_dir_Phenylacetylene_geom_element_C_2019-11-16_20-30-06//GTE1_Phenylacetylene_geom_2019-11-16_20-30-22//opt.xyz 