17
	Energy:      17.9239819
C         -1.73085        1.14367        0.04172
C         -0.42521        1.67371       -0.04902
C         -1.94528       -0.23707        0.07305
C         -0.86384       -1.11489        0.01461
C          0.43425       -0.61326       -0.07528
C          0.65735        0.76731       -0.10717
C         -0.24269        3.16139       -0.07967
C          1.09127        3.85594       -0.17457
H         -2.59351        1.79645        0.08894
H         -2.95294       -0.62625        0.14283
H         -1.03147       -2.18393        0.03897
H          1.68113        1.09395       -0.17717
H          1.27260       -1.29668       -0.12053
O         -1.23147        3.87845       -0.02496
H          1.95946        3.17842       -0.22208
H          1.22481        4.51022        0.71244
H          1.10858        4.48744       -1.08761
