! B3LYP 6-31G* TIGHTSCF Grid3 FinalGrid5 Freq 
!NormalPrint 
%output 
Print[P_Basis] 2 
Print[P_MOS] 1 
end 
*xyzfile 0 1 /Users/lailaal-madhagi/Desktop/Testing_XAS_Analysis_code/Diethylether//Results_dir_Diethylether_geom_element_O_2019-11-10_17-41-47//GTE1_Diethylether_geom_2019-11-10_17-41-55//opt.xyz 