12
	Energy:      32.4141015
N         -2.62232        0.61654        0.04270
B         -1.11540        0.85734        0.03262
B         -3.12928       -0.82286        0.04455
N         -2.16730       -2.00752        0.03659
B         -0.66730       -1.72686        0.02661
N         -0.12236       -0.30140        0.02448
H         -4.29319       -1.02470        0.05231
H         -3.29142        1.41855        0.04820
H         -0.70824        1.96625        0.03108
H          0.90674       -0.12294        0.01762
H          0.08944       -2.63393        0.02039
H         -2.52731       -2.98800        0.03795
