10
	Energy:       0.8540704
C         -2.53363       -0.06452       -0.01976
C         -1.18250        0.58112        0.01301
H         -2.63157       -0.67871       -0.93922
H         -3.33650        0.70342       -0.01509
H         -2.65733       -0.71662        0.87002
C          0.05358       -0.26482        0.01287
H          0.07885       -0.88853       -0.90505
H          0.05310       -0.92647        0.90419
H          0.96469        0.37043        0.03916
O         -1.08856        1.79886        0.03987
