11
	Energy:      10.4507136
C         -1.76836        0.66414       -0.00369
C         -0.39343        0.91041        0.00002
C          0.49369       -0.16950       -0.00181
C         -2.23799       -0.65135       -0.00915
C         -1.31917       -1.70441       -0.01083
N          0.01600       -1.44330       -0.00715
H         -2.46775        1.49015       -0.00233
H         -0.01933        1.92600        0.00426
H          1.56134        0.00492        0.00101
H         -3.30138       -0.85285       -0.01206
H         -1.66725       -2.72867       -0.01505
