20
	Energy:      17.8115417
C         -3.95784        0.13725        0.55345
C         -3.79914       -0.86685       -0.40449
C         -2.86032        0.90602        0.95422
C         -2.54200       -1.10493       -0.96443
C         -1.58714        0.67376        0.39522
C         -1.44139       -0.33943       -0.56747
C         -0.37119        1.47430        0.79266
H         -3.01349        1.67685        1.69818
H         -4.93282        0.32048        0.98643
H         -4.65020       -1.46026       -0.71278
H         -0.47288       -0.53621       -1.01102
H         -2.41978       -1.88317       -1.70668
O         -0.67657        2.42795        1.74463
H          0.03353        1.97517       -0.11402
H          0.39242        0.77684        1.20153
C          0.20392        3.30214        2.30083
N          1.51670        3.31840        1.95790
O         -0.20573        4.09457        3.13416
H          1.90439        2.66851        1.26039
H          2.15866        3.99411        2.39836
