13
	Energy:      11.5471414
C         -3.02232        0.99892        0.00228
C         -1.91370        1.85463        0.01030
C         -2.83966       -0.38795       -0.00103
C         -1.54824       -0.92416        0.00366
C         -0.43808       -0.07404        0.01167
C         -0.61818        1.31312        0.01500
O         -2.10451        3.18933        0.01342
H         -1.36573        3.81460        0.01894
H         -4.02479        1.40811       -0.00138
H         -3.69855       -1.04656       -0.00723
H         -1.40794       -1.99737        0.00110
H          0.56125       -0.48975        0.01530
H          0.24700        1.96406        0.02120
